# generated using pymatgen
data_La2O3
_symmetry_space_group_name_H-M   'P 1'
_cell_length_a   11.32700000
_cell_length_b   11.32700000
_cell_length_c   11.32700000
_cell_angle_alpha   90.00000000
_cell_angle_beta   90.00000000
_cell_angle_gamma   90.00000000
_symmetry_Int_Tables_number   1
_chemical_formula_structural   La2O3
_chemical_formula_sum   'La32 O48'
_cell_volume   1453.26462278
_cell_formula_units_Z   16
loop_
 _symmetry_equiv_pos_site_id
 _symmetry_equiv_pos_as_xyz
  1  'x, y, z'
loop_
 _atom_type_symbol
 _atom_type_oxidation_number
  La3+  3.0
  O2-  -2.0
loop_
 _atom_site_type_symbol
 _atom_site_label
 _atom_site_symmetry_multiplicity
 _atom_site_fract_x
 _atom_site_fract_y
 _atom_site_fract_z
 _atom_site_occupancy
  La3+  La0  1  0.75000000  0.27900000  0.50000000  1.0
  La3+  La1  1  0.25000000  0.77900000  0.00000000  1.0
  La3+  La2  1  0.75000000  0.72100000  0.00000000  1.0
  La3+  La3  1  0.50000000  0.75000000  0.27900000  1.0
  La3+  La4  1  0.00000000  0.25000000  0.77900000  1.0
  La3+  La5  1  0.00000000  0.75000000  0.72100000  1.0
  La3+  La6  1  0.27900000  0.50000000  0.75000000  1.0
  La3+  La7  1  0.77900000  0.00000000  0.25000000  1.0
  La3+  La8  1  0.72100000  0.00000000  0.75000000  1.0
  La3+  La9  1  0.25000000  0.72100000  0.50000000  1.0
  La3+  La10  1  0.75000000  0.22100000  0.00000000  1.0
  La3+  La11  1  0.25000000  0.27900000  0.00000000  1.0
  La3+  La12  1  0.50000000  0.25000000  0.72100000  1.0
  La3+  La13  1  0.00000000  0.75000000  0.22100000  1.0
  La3+  La14  1  0.00000000  0.25000000  0.27900000  1.0
  La3+  La15  1  0.72100000  0.50000000  0.25000000  1.0
  La3+  La16  1  0.22100000  0.00000000  0.75000000  1.0
  La3+  La17  1  0.27900000  0.00000000  0.25000000  1.0
  La3+  La18  1  0.25000000  0.22100000  0.50000000  1.0
  La3+  La19  1  0.50000000  0.25000000  0.22100000  1.0
  La3+  La20  1  0.22100000  0.50000000  0.25000000  1.0
  La3+  La21  1  0.75000000  0.77900000  0.50000000  1.0
  La3+  La22  1  0.50000000  0.75000000  0.77900000  1.0
  La3+  La23  1  0.77900000  0.50000000  0.75000000  1.0
  La3+  La24  1  0.00000000  0.00000000  0.50000000  1.0
  La3+  La25  1  0.00000000  0.50000000  0.00000000  1.0
  La3+  La26  1  0.50000000  0.00000000  0.00000000  1.0
  La3+  La27  1  0.00000000  0.00000000  0.00000000  1.0
  La3+  La28  1  0.50000000  0.50000000  0.00000000  1.0
  La3+  La29  1  0.50000000  0.00000000  0.50000000  1.0
  La3+  La30  1  0.00000000  0.50000000  0.50000000  1.0
  La3+  La31  1  0.50000000  0.50000000  0.50000000  1.0
  O2-  O32  1  0.87100000  0.10200000  0.86100000  1.0
  O2-  O33  1  0.12900000  0.60200000  0.63900000  1.0
  O2-  O34  1  0.62900000  0.89800000  0.36100000  1.0
  O2-  O35  1  0.87100000  0.89800000  0.63900000  1.0
  O2-  O36  1  0.86100000  0.87100000  0.10200000  1.0
  O2-  O37  1  0.63900000  0.12900000  0.60200000  1.0
  O2-  O38  1  0.36100000  0.62900000  0.89800000  1.0
  O2-  O39  1  0.63900000  0.87100000  0.89800000  1.0
  O2-  O40  1  0.10200000  0.86100000  0.87100000  1.0
  O2-  O41  1  0.60200000  0.63900000  0.12900000  1.0
  O2-  O42  1  0.89800000  0.36100000  0.62900000  1.0
  O2-  O43  1  0.89800000  0.63900000  0.87100000  1.0
  O2-  O44  1  0.12900000  0.89800000  0.13900000  1.0
  O2-  O45  1  0.87100000  0.39800000  0.36100000  1.0
  O2-  O46  1  0.37100000  0.10200000  0.63900000  1.0
  O2-  O47  1  0.12900000  0.10200000  0.36100000  1.0
  O2-  O48  1  0.13900000  0.12900000  0.89800000  1.0
  O2-  O49  1  0.36100000  0.87100000  0.39800000  1.0
  O2-  O50  1  0.63900000  0.37100000  0.10200000  1.0
  O2-  O51  1  0.36100000  0.12900000  0.10200000  1.0
  O2-  O52  1  0.89800000  0.13900000  0.12900000  1.0
  O2-  O53  1  0.39800000  0.36100000  0.87100000  1.0
  O2-  O54  1  0.10200000  0.63900000  0.37100000  1.0
  O2-  O55  1  0.10200000  0.36100000  0.12900000  1.0
  O2-  O56  1  0.37100000  0.60200000  0.36100000  1.0
  O2-  O57  1  0.62900000  0.10200000  0.13900000  1.0
  O2-  O58  1  0.12900000  0.39800000  0.86100000  1.0
  O2-  O59  1  0.37100000  0.39800000  0.13900000  1.0
  O2-  O60  1  0.36100000  0.37100000  0.60200000  1.0
  O2-  O61  1  0.13900000  0.62900000  0.10200000  1.0
  O2-  O62  1  0.86100000  0.12900000  0.39800000  1.0
  O2-  O63  1  0.13900000  0.37100000  0.39800000  1.0
  O2-  O64  1  0.60200000  0.36100000  0.37100000  1.0
  O2-  O65  1  0.10200000  0.13900000  0.62900000  1.0
  O2-  O66  1  0.39800000  0.86100000  0.12900000  1.0
  O2-  O67  1  0.39800000  0.13900000  0.37100000  1.0
  O2-  O68  1  0.62900000  0.39800000  0.63900000  1.0
  O2-  O69  1  0.37100000  0.89800000  0.86100000  1.0
  O2-  O70  1  0.87100000  0.60200000  0.13900000  1.0
  O2-  O71  1  0.62900000  0.60200000  0.86100000  1.0
  O2-  O72  1  0.63900000  0.62900000  0.39800000  1.0
  O2-  O73  1  0.86100000  0.37100000  0.89800000  1.0
  O2-  O74  1  0.13900000  0.87100000  0.60200000  1.0
  O2-  O75  1  0.86100000  0.62900000  0.60200000  1.0
  O2-  O76  1  0.39800000  0.63900000  0.62900000  1.0
  O2-  O77  1  0.89800000  0.86100000  0.37100000  1.0
  O2-  O78  1  0.60200000  0.13900000  0.87100000  1.0
  O2-  O79  1  0.60200000  0.86100000  0.62900000  1.0
