# generated using pymatgen
data_La2Zr2O7
_symmetry_space_group_name_H-M   'P 1'
_cell_length_a   10.73000000
_cell_length_b   10.73000000
_cell_length_c   10.73000000
_cell_angle_alpha   90.00000000
_cell_angle_beta   90.00000000
_cell_angle_gamma   90.00000000
_symmetry_Int_Tables_number   1
_chemical_formula_structural   La2Zr2O7
_chemical_formula_sum   'La16 Zr16 O56'
_cell_volume   1235.37601700
_cell_formula_units_Z   8
loop_
 _symmetry_equiv_pos_site_id
 _symmetry_equiv_pos_as_xyz
  1  'x, y, z'
loop_
 _atom_type_symbol
 _atom_type_oxidation_number
  La0+  0.0
  Zr0+  0.0
  O0+  0.0
loop_
 _atom_site_type_symbol
 _atom_site_label
 _atom_site_symmetry_multiplicity
 _atom_site_fract_x
 _atom_site_fract_y
 _atom_site_fract_z
 _atom_site_occupancy
  La0+  La0  1  0.50000000  0.25000000  0.25000000  1.0
  La0+  La1  1  0.25000000  0.50000000  0.25000000  1.0
  La0+  La2  1  0.25000000  0.25000000  0.50000000  1.0
  La0+  La3  1  0.50000000  0.50000000  0.50000000  1.0
  La0+  La4  1  0.50000000  0.75000000  0.75000000  1.0
  La0+  La5  1  0.75000000  0.50000000  0.75000000  1.0
  La0+  La6  1  0.75000000  0.75000000  0.50000000  1.0
  La0+  La7  1  0.25000000  0.00000000  0.75000000  1.0
  La0+  La8  1  0.25000000  0.75000000  0.00000000  1.0
  La0+  La9  1  0.50000000  0.00000000  0.00000000  1.0
  La0+  La10  1  0.75000000  0.00000000  0.25000000  1.0
  La0+  La11  1  0.75000000  0.25000000  0.00000000  1.0
  La0+  La12  1  0.00000000  0.25000000  0.75000000  1.0
  La0+  La13  1  0.00000000  0.50000000  0.00000000  1.0
  La0+  La14  1  0.00000000  0.75000000  0.25000000  1.0
  La0+  La15  1  0.00000000  0.00000000  0.50000000  1.0
  Zr0+  Zr16  1  0.00000000  0.75000000  0.75000000  1.0
  Zr0+  Zr17  1  0.75000000  0.00000000  0.75000000  1.0
  Zr0+  Zr18  1  0.75000000  0.75000000  0.00000000  1.0
  Zr0+  Zr19  1  0.00000000  0.00000000  0.00000000  1.0
  Zr0+  Zr20  1  0.00000000  0.25000000  0.25000000  1.0
  Zr0+  Zr21  1  0.25000000  0.00000000  0.25000000  1.0
  Zr0+  Zr22  1  0.25000000  0.25000000  0.00000000  1.0
  Zr0+  Zr23  1  0.75000000  0.50000000  0.25000000  1.0
  Zr0+  Zr24  1  0.75000000  0.25000000  0.50000000  1.0
  Zr0+  Zr25  1  0.00000000  0.50000000  0.50000000  1.0
  Zr0+  Zr26  1  0.25000000  0.50000000  0.75000000  1.0
  Zr0+  Zr27  1  0.25000000  0.75000000  0.50000000  1.0
  Zr0+  Zr28  1  0.50000000  0.75000000  0.25000000  1.0
  Zr0+  Zr29  1  0.50000000  0.00000000  0.50000000  1.0
  Zr0+  Zr30  1  0.50000000  0.25000000  0.75000000  1.0
  Zr0+  Zr31  1  0.50000000  0.50000000  0.00000000  1.0
  O0+  O32  1  0.87500000  0.87500000  0.08100000  1.0
  O0+  O33  1  0.87500000  0.87500000  0.66900000  1.0
  O0+  O34  1  0.87500000  0.08100000  0.87500000  1.0
  O0+  O35  1  0.87500000  0.66900000  0.87500000  1.0
  O0+  O36  1  0.08100000  0.87500000  0.87500000  1.0
  O0+  O37  1  0.66900000  0.87500000  0.87500000  1.0
  O0+  O38  1  0.12500000  0.12500000  0.91900000  1.0
  O0+  O39  1  0.12500000  0.12500000  0.33100000  1.0
  O0+  O40  1  0.12500000  0.91900000  0.12500000  1.0
  O0+  O41  1  0.12500000  0.33100000  0.12500000  1.0
  O0+  O42  1  0.91900000  0.12500000  0.12500000  1.0
  O0+  O43  1  0.33100000  0.12500000  0.12500000  1.0
  O0+  O44  1  0.87500000  0.37500000  0.58100000  1.0
  O0+  O45  1  0.87500000  0.37500000  0.16900000  1.0
  O0+  O46  1  0.87500000  0.58100000  0.37500000  1.0
  O0+  O47  1  0.87500000  0.16900000  0.37500000  1.0
  O0+  O48  1  0.08100000  0.37500000  0.37500000  1.0
  O0+  O49  1  0.66900000  0.37500000  0.37500000  1.0
  O0+  O50  1  0.12500000  0.62500000  0.41900000  1.0
  O0+  O51  1  0.12500000  0.62500000  0.83100000  1.0
  O0+  O52  1  0.12500000  0.41900000  0.62500000  1.0
  O0+  O53  1  0.12500000  0.83100000  0.62500000  1.0
  O0+  O54  1  0.91900000  0.62500000  0.62500000  1.0
  O0+  O55  1  0.33100000  0.62500000  0.62500000  1.0
  O0+  O56  1  0.37500000  0.87500000  0.58100000  1.0
  O0+  O57  1  0.37500000  0.87500000  0.16900000  1.0
  O0+  O58  1  0.37500000  0.08100000  0.37500000  1.0
  O0+  O59  1  0.37500000  0.66900000  0.37500000  1.0
  O0+  O60  1  0.58100000  0.87500000  0.37500000  1.0
  O0+  O61  1  0.16900000  0.87500000  0.37500000  1.0
  O0+  O62  1  0.62500000  0.12500000  0.41900000  1.0
  O0+  O63  1  0.62500000  0.12500000  0.83100000  1.0
  O0+  O64  1  0.62500000  0.91900000  0.62500000  1.0
  O0+  O65  1  0.62500000  0.33100000  0.62500000  1.0
  O0+  O66  1  0.41900000  0.12500000  0.62500000  1.0
  O0+  O67  1  0.83100000  0.12500000  0.62500000  1.0
  O0+  O68  1  0.37500000  0.37500000  0.08100000  1.0
  O0+  O69  1  0.37500000  0.37500000  0.66900000  1.0
  O0+  O70  1  0.37500000  0.58100000  0.87500000  1.0
  O0+  O71  1  0.37500000  0.16900000  0.87500000  1.0
  O0+  O72  1  0.58100000  0.37500000  0.87500000  1.0
  O0+  O73  1  0.16900000  0.37500000  0.87500000  1.0
  O0+  O74  1  0.62500000  0.62500000  0.91900000  1.0
  O0+  O75  1  0.62500000  0.62500000  0.33100000  1.0
  O0+  O76  1  0.62500000  0.41900000  0.12500000  1.0
  O0+  O77  1  0.62500000  0.83100000  0.12500000  1.0
  O0+  O78  1  0.41900000  0.62500000  0.12500000  1.0
  O0+  O79  1  0.83100000  0.62500000  0.12500000  1.0
  O0+  O80  1  0.62500000  0.12500000  0.12500000  1.0
  O0+  O81  1  0.12500000  0.62500000  0.12500000  1.0
  O0+  O82  1  0.12500000  0.12500000  0.62500000  1.0
  O0+  O83  1  0.62500000  0.62500000  0.62500000  1.0
  O0+  O84  1  0.37500000  0.87500000  0.87500000  1.0
  O0+  O85  1  0.87500000  0.37500000  0.87500000  1.0
  O0+  O86  1  0.87500000  0.87500000  0.37500000  1.0
  O0+  O87  1  0.37500000  0.37500000  0.37500000  1.0
