# generated using pymatgen
data_Li2O
_symmetry_space_group_name_H-M   'P 1'
_cell_length_a   4.61549000
_cell_length_b   4.61549000
_cell_length_c   4.61549000
_cell_angle_alpha   90.00000000
_cell_angle_beta   90.00000000
_cell_angle_gamma   90.00000000
_symmetry_Int_Tables_number   1
_chemical_formula_structural   Li2O
_chemical_formula_sum   'Li8 O4'
_cell_volume   98.32262009
_cell_formula_units_Z   4
loop_
 _symmetry_equiv_pos_site_id
 _symmetry_equiv_pos_as_xyz
  1  'x, y, z'
loop_
 _atom_type_symbol
 _atom_type_oxidation_number
  Li+  1.0
  O2-  -2.0
loop_
 _atom_site_type_symbol
 _atom_site_label
 _atom_site_symmetry_multiplicity
 _atom_site_fract_x
 _atom_site_fract_y
 _atom_site_fract_z
 _atom_site_occupancy
  Li+  Li0  1  0.25000000  0.25000000  0.75000000  1.0
  Li+  Li1  1  0.25000000  0.75000000  0.25000000  1.0
  Li+  Li2  1  0.75000000  0.25000000  0.25000000  1.0
  Li+  Li3  1  0.75000000  0.75000000  0.75000000  1.0
  Li+  Li4  1  0.75000000  0.75000000  0.25000000  1.0
  Li+  Li5  1  0.75000000  0.25000000  0.75000000  1.0
  Li+  Li6  1  0.25000000  0.75000000  0.75000000  1.0
  Li+  Li7  1  0.25000000  0.25000000  0.25000000  1.0
  O2-  O8  1  0.00000000  0.00000000  0.00000000  1.0
  O2-  O9  1  0.00000000  0.50000000  0.50000000  1.0
  O2-  O10  1  0.50000000  0.00000000  0.50000000  1.0
  O2-  O11  1  0.50000000  0.50000000  0.00000000  1.0
