# generated using pymatgen
data_Li2O2
_symmetry_space_group_name_H-M   'P 1'
_cell_length_a   3.16400000
_cell_length_b   3.16400000
_cell_length_c   7.72400000
_cell_angle_alpha   90.00000000
_cell_angle_beta   90.00000000
_cell_angle_gamma   120.00000000
_symmetry_Int_Tables_number   1
_chemical_formula_structural   Li2O2
_chemical_formula_sum   'Li4 O4'
_cell_volume   66.96468750
_cell_formula_units_Z   2
loop_
 _symmetry_equiv_pos_site_id
 _symmetry_equiv_pos_as_xyz
  1  'x, y, z'
loop_
 _atom_type_symbol
 _atom_type_oxidation_number
  Li+  1.0
  O-  -1.0
loop_
 _atom_site_type_symbol
 _atom_site_label
 _atom_site_symmetry_multiplicity
 _atom_site_fract_x
 _atom_site_fract_y
 _atom_site_fract_z
 _atom_site_occupancy
  Li+  Li0  1  0.33333333  0.66666667  0.25000000  1.0
  Li+  Li1  1  0.66666667  0.33333333  0.75000000  1.0
  Li+  Li2  1  0.00000000  0.00000000  0.50000000  1.0
  Li+  Li3  1  0.00000000  0.00000000  0.00000000  1.0
  O-  O4  1  0.33333333  0.66666667  0.64610000  1.0
  O-  O5  1  0.66666667  0.33333333  0.35390000  1.0
  O-  O6  1  0.66666667  0.33333333  0.14610000  1.0
  O-  O7  1  0.33333333  0.66666667  0.85390000  1.0
