# generated using pymatgen
data_Li2ZrO3
_symmetry_space_group_name_H-M   'P 1'
_cell_length_a   5.42640000
_cell_length_b   9.02580000
_cell_length_c   5.42110000
_cell_angle_alpha   90.00000000
_cell_angle_beta   112.72340000
_cell_angle_gamma   90.00000000
_symmetry_Int_Tables_number   1
_chemical_formula_structural   Li2ZrO3
_chemical_formula_sum   'Li8 Zr4 O12'
_cell_volume   244.90350298
_cell_formula_units_Z   4
loop_
 _symmetry_equiv_pos_site_id
 _symmetry_equiv_pos_as_xyz
  1  'x, y, z'
loop_
 _atom_type_symbol
 _atom_type_oxidation_number
  Li+  1.0
  Zr4+  4.0
  O2-  -2.0
loop_
 _atom_site_type_symbol
 _atom_site_label
 _atom_site_symmetry_multiplicity
 _atom_site_fract_x
 _atom_site_fract_y
 _atom_site_fract_z
 _atom_site_occupancy
  Li+  Li0  1  0.00000000  0.56930000  0.75000000  1.0
  Li+  Li1  1  0.00000000  0.43070000  0.25000000  1.0
  Li+  Li2  1  0.50000000  0.06930000  0.75000000  1.0
  Li+  Li3  1  0.50000000  0.93070000  0.25000000  1.0
  Li+  Li4  1  0.00000000  0.26258000  0.75000000  1.0
  Li+  Li5  1  0.00000000  0.73742000  0.25000000  1.0
  Li+  Li6  1  0.50000000  0.76258000  0.75000000  1.0
  Li+  Li7  1  0.50000000  0.23742000  0.25000000  1.0
  Zr4+  Zr8  1  0.00000000  0.90998000  0.75000000  1.0
  Zr4+  Zr9  1  0.00000000  0.09002000  0.25000000  1.0
  Zr4+  Zr10  1  0.50000000  0.40998000  0.75000000  1.0
  Zr4+  Zr11  1  0.50000000  0.59002000  0.25000000  1.0
  O2-  O12  1  0.25000000  0.75000000  0.00000000  1.0
  O2-  O13  1  0.75000000  0.75000000  0.50000000  1.0
  O2-  O14  1  0.75000000  0.25000000  0.00000000  1.0
  O2-  O15  1  0.25000000  0.25000000  0.50000000  1.0
  O2-  O16  1  0.27189000  0.42422000  0.98585000  1.0
  O2-  O17  1  0.72811000  0.42422000  0.51415000  1.0
  O2-  O18  1  0.72811000  0.57578000  0.01415000  1.0
  O2-  O19  1  0.27189000  0.57578000  0.48585000  1.0
  O2-  O20  1  0.77189000  0.92422000  0.98585000  1.0
  O2-  O21  1  0.22811000  0.92422000  0.51415000  1.0
  O2-  O22  1  0.22811000  0.07578000  0.01415000  1.0
  O2-  O23  1  0.77189000  0.07578000  0.48585000  1.0
