# generated using pymatgen
data_Li6Zr2O7
_symmetry_space_group_name_H-M   'P 1'
_cell_length_a   10.44500000
_cell_length_b   5.98900000
_cell_length_c   10.20000000
_cell_angle_alpha   90.00000000
_cell_angle_beta   100.26000000
_cell_angle_gamma   90.00000000
_symmetry_Int_Tables_number   1
_chemical_formula_structural   Li6Zr2O7
_chemical_formula_sum   'Li24 Zr8 O28'
_cell_volume   627.85921963
_cell_formula_units_Z   4
loop_
 _symmetry_equiv_pos_site_id
 _symmetry_equiv_pos_as_xyz
  1  'x, y, z'
loop_
 _atom_type_symbol
 _atom_type_oxidation_number
  Li+  1.0
  Zr4+  4.0
  O2-  -2.0
loop_
 _atom_site_type_symbol
 _atom_site_label
 _atom_site_symmetry_multiplicity
 _atom_site_fract_x
 _atom_site_fract_y
 _atom_site_fract_z
 _atom_site_occupancy
  Li+  Li0  1  0.06380000  0.85460000  0.58410000  1.0
  Li+  Li1  1  0.93620000  0.85460000  0.91590000  1.0
  Li+  Li2  1  0.93620000  0.14540000  0.41590000  1.0
  Li+  Li3  1  0.06380000  0.14540000  0.08410000  1.0
  Li+  Li4  1  0.56380000  0.35460000  0.58410000  1.0
  Li+  Li5  1  0.43620000  0.35460000  0.91590000  1.0
  Li+  Li6  1  0.43620000  0.64540000  0.41590000  1.0
  Li+  Li7  1  0.56380000  0.64540000  0.08410000  1.0
  Li+  Li8  1  0.29170000  0.63020000  0.60200000  1.0
  Li+  Li9  1  0.70830000  0.63020000  0.89800000  1.0
  Li+  Li10  1  0.70830000  0.36980000  0.39800000  1.0
  Li+  Li11  1  0.29170000  0.36980000  0.10200000  1.0
  Li+  Li12  1  0.79170000  0.13020000  0.60200000  1.0
  Li+  Li13  1  0.20830000  0.13020000  0.89800000  1.0
  Li+  Li14  1  0.20830000  0.86980000  0.39800000  1.0
  Li+  Li15  1  0.79170000  0.86980000  0.10200000  1.0
  Li+  Li16  1  0.56650000  0.90380000  0.60310000  1.0
  Li+  Li17  1  0.43350000  0.90380000  0.89690000  1.0
  Li+  Li18  1  0.43350000  0.09620000  0.39690000  1.0
  Li+  Li19  1  0.56650000  0.09620000  0.10310000  1.0
  Li+  Li20  1  0.06650000  0.40380000  0.60310000  1.0
  Li+  Li21  1  0.93350000  0.40380000  0.89690000  1.0
  Li+  Li22  1  0.93350000  0.59620000  0.39690000  1.0
  Li+  Li23  1  0.06650000  0.59620000  0.10310000  1.0
  Zr4+  Zr24  1  0.18341000  0.62128000  0.86463000  1.0
  Zr4+  Zr25  1  0.81659000  0.62128000  0.63537000  1.0
  Zr4+  Zr26  1  0.81659000  0.37872000  0.13537000  1.0
  Zr4+  Zr27  1  0.18341000  0.37872000  0.36463000  1.0
  Zr4+  Zr28  1  0.68341000  0.12128000  0.86463000  1.0
  Zr4+  Zr29  1  0.31659000  0.12128000  0.63537000  1.0
  Zr4+  Zr30  1  0.31659000  0.87872000  0.13537000  1.0
  Zr4+  Zr31  1  0.68341000  0.87872000  0.36463000  1.0
  O2-  O32  1  0.13380000  0.86610000  0.00230000  1.0
  O2-  O33  1  0.86620000  0.86610000  0.49770000  1.0
  O2-  O34  1  0.86620000  0.13390000  0.99770000  1.0
  O2-  O35  1  0.13380000  0.13390000  0.50230000  1.0
  O2-  O36  1  0.63380000  0.36610000  0.00230000  1.0
  O2-  O37  1  0.36620000  0.36610000  0.49770000  1.0
  O2-  O38  1  0.36620000  0.63390000  0.99770000  1.0
  O2-  O39  1  0.63380000  0.63390000  0.50230000  1.0
  O2-  O40  1  0.25000000  0.88840000  0.75490000  1.0
  O2-  O41  1  0.75000000  0.88840000  0.74510000  1.0
  O2-  O42  1  0.75000000  0.11160000  0.24510000  1.0
  O2-  O43  1  0.25000000  0.11160000  0.25490000  1.0
  O2-  O44  1  0.75000000  0.38840000  0.75490000  1.0
  O2-  O45  1  0.25000000  0.38840000  0.74510000  1.0
  O2-  O46  1  0.25000000  0.61160000  0.24510000  1.0
  O2-  O47  1  0.75000000  0.61160000  0.25490000  1.0
  O2-  O48  1  0.37830000  0.87770000  0.52270000  1.0
  O2-  O49  1  0.62170000  0.87770000  0.97730000  1.0
  O2-  O50  1  0.62170000  0.12230000  0.47730000  1.0
  O2-  O51  1  0.37830000  0.12230000  0.02270000  1.0
  O2-  O52  1  0.87830000  0.37770000  0.52270000  1.0
  O2-  O53  1  0.12170000  0.37770000  0.97730000  1.0
  O2-  O54  1  0.12170000  0.62230000  0.47730000  1.0
  O2-  O55  1  0.87830000  0.62230000  0.02270000  1.0
  O2-  O56  1  0.00000000  0.64970000  0.75000000  1.0
  O2-  O57  1  0.00000000  0.35030000  0.25000000  1.0
  O2-  O58  1  0.50000000  0.14970000  0.75000000  1.0
  O2-  O59  1  0.50000000  0.85030000  0.25000000  1.0
