# generated using pymatgen
data_Li7La3Zr2O12
_symmetry_space_group_name_H-M   'P 1'
_cell_length_a   13.12250000
_cell_length_b   13.12250000
_cell_length_c   12.66740000
_cell_angle_alpha   90.00000000
_cell_angle_beta   90.00000000
_cell_angle_gamma   90.00000000
_symmetry_Int_Tables_number   1
_chemical_formula_structural   Li7La3Zr2O12
_chemical_formula_sum   'Li56 La24 Zr16 O96'
_cell_volume   2181.32635917
_cell_formula_units_Z   8
loop_
 _symmetry_equiv_pos_site_id
 _symmetry_equiv_pos_as_xyz
  1  'x, y, z'
loop_
 _atom_type_symbol
 _atom_type_oxidation_number
  Li+  1.0
  La3+  3.0
  Zr4+  4.0
  O2-  -2.0
loop_
 _atom_site_type_symbol
 _atom_site_label
 _atom_site_symmetry_multiplicity
 _atom_site_fract_x
 _atom_site_fract_y
 _atom_site_fract_z
 _atom_site_occupancy
  Li+  Li0  1  0.50000000  0.75000000  0.37500000  1.0
  Li+  Li1  1  0.50000000  0.75000000  0.87500000  1.0
  Li+  Li2  1  0.00000000  0.75000000  0.62500000  1.0
  Li+  Li3  1  0.00000000  0.75000000  0.12500000  1.0
  Li+  Li4  1  0.50000000  0.25000000  0.62500000  1.0
  Li+  Li5  1  0.50000000  0.25000000  0.12500000  1.0
  Li+  Li6  1  0.00000000  0.25000000  0.37500000  1.0
  Li+  Li7  1  0.00000000  0.25000000  0.87500000  1.0
  Li+  Li8  1  0.68070000  0.93070000  0.62500000  1.0
  Li+  Li9  1  0.31930000  0.93070000  0.12500000  1.0
  Li+  Li10  1  0.18070000  0.93070000  0.87500000  1.0
  Li+  Li11  1  0.81930000  0.93070000  0.37500000  1.0
  Li+  Li12  1  0.31930000  0.06930000  0.37500000  1.0
  Li+  Li13  1  0.68070000  0.06930000  0.87500000  1.0
  Li+  Li14  1  0.81930000  0.06930000  0.12500000  1.0
  Li+  Li15  1  0.18070000  0.06930000  0.62500000  1.0
  Li+  Li16  1  0.68070000  0.56930000  0.12500000  1.0
  Li+  Li17  1  0.31930000  0.56930000  0.62500000  1.0
  Li+  Li18  1  0.18070000  0.56930000  0.37500000  1.0
  Li+  Li19  1  0.81930000  0.56930000  0.87500000  1.0
  Li+  Li20  1  0.31930000  0.43070000  0.87500000  1.0
  Li+  Li21  1  0.68070000  0.43070000  0.37500000  1.0
  Li+  Li22  1  0.81930000  0.43070000  0.62500000  1.0
  Li+  Li23  1  0.18070000  0.43070000  0.12500000  1.0
  Li+  Li24  1  0.33750000  0.83240000  0.94440000  1.0
  Li+  Li25  1  0.66250000  0.83240000  0.44440000  1.0
  Li+  Li26  1  0.08240000  0.58750000  0.19440000  1.0
  Li+  Li27  1  0.91760000  0.58750000  0.69440000  1.0
  Li+  Li28  1  0.66250000  0.16760000  0.05560000  1.0
  Li+  Li29  1  0.33750000  0.16760000  0.55560000  1.0
  Li+  Li30  1  0.91760000  0.41250000  0.80560000  1.0
  Li+  Li31  1  0.08240000  0.41250000  0.30560000  1.0
  Li+  Li32  1  0.33750000  0.66760000  0.44440000  1.0
  Li+  Li33  1  0.66250000  0.66760000  0.94440000  1.0
  Li+  Li34  1  0.08240000  0.91250000  0.69440000  1.0
  Li+  Li35  1  0.91760000  0.91250000  0.19440000  1.0
  Li+  Li36  1  0.66250000  0.33240000  0.55560000  1.0
  Li+  Li37  1  0.33750000  0.33240000  0.05560000  1.0
  Li+  Li38  1  0.91760000  0.08750000  0.30560000  1.0
  Li+  Li39  1  0.08240000  0.08750000  0.80560000  1.0
  Li+  Li40  1  0.83750000  0.33240000  0.44440000  1.0
  Li+  Li41  1  0.16250000  0.33240000  0.94440000  1.0
  Li+  Li42  1  0.58240000  0.08750000  0.69440000  1.0
  Li+  Li43  1  0.41760000  0.08750000  0.19440000  1.0
  Li+  Li44  1  0.16250000  0.66760000  0.55560000  1.0
  Li+  Li45  1  0.83750000  0.66760000  0.05560000  1.0
  Li+  Li46  1  0.41760000  0.91250000  0.30560000  1.0
  Li+  Li47  1  0.58240000  0.91250000  0.80560000  1.0
  Li+  Li48  1  0.83750000  0.16760000  0.94440000  1.0
  Li+  Li49  1  0.16250000  0.16760000  0.44440000  1.0
  Li+  Li50  1  0.58240000  0.41250000  0.19440000  1.0
  Li+  Li51  1  0.41760000  0.41250000  0.69440000  1.0
  Li+  Li52  1  0.16250000  0.83240000  0.05560000  1.0
  Li+  Li53  1  0.83750000  0.83240000  0.55560000  1.0
  Li+  Li54  1  0.41760000  0.58750000  0.80560000  1.0
  Li+  Li55  1  0.58240000  0.58750000  0.30560000  1.0
  La3+  La56  1  0.50000000  0.75000000  0.62500000  1.0
  La3+  La57  1  0.50000000  0.75000000  0.12500000  1.0
  La3+  La58  1  0.00000000  0.75000000  0.87500000  1.0
  La3+  La59  1  0.00000000  0.75000000  0.37500000  1.0
  La3+  La60  1  0.50000000  0.25000000  0.37500000  1.0
  La3+  La61  1  0.50000000  0.25000000  0.87500000  1.0
  La3+  La62  1  0.00000000  0.25000000  0.12500000  1.0
  La3+  La63  1  0.00000000  0.25000000  0.62500000  1.0
  La3+  La64  1  0.25000000  0.87700000  0.50000000  1.0
  La3+  La65  1  0.75000000  0.87700000  0.00000000  1.0
  La3+  La66  1  0.12700000  0.50000000  0.75000000  1.0
  La3+  La67  1  0.87300000  0.50000000  0.25000000  1.0
  La3+  La68  1  0.75000000  0.12300000  0.50000000  1.0
  La3+  La69  1  0.25000000  0.12300000  0.00000000  1.0
  La3+  La70  1  0.25000000  0.62300000  0.00000000  1.0
  La3+  La71  1  0.75000000  0.62300000  0.50000000  1.0
  La3+  La72  1  0.12700000  0.00000000  0.25000000  1.0
  La3+  La73  1  0.87300000  0.00000000  0.75000000  1.0
  La3+  La74  1  0.75000000  0.37700000  0.00000000  1.0
  La3+  La75  1  0.25000000  0.37700000  0.50000000  1.0
  La3+  La76  1  0.62700000  0.00000000  0.25000000  1.0
  La3+  La77  1  0.37300000  0.00000000  0.75000000  1.0
  La3+  La78  1  0.62700000  0.50000000  0.75000000  1.0
  La3+  La79  1  0.37300000  0.50000000  0.25000000  1.0
  Zr4+  Zr80  1  0.25000000  0.75000000  0.75000000  1.0
  Zr4+  Zr81  1  0.75000000  0.75000000  0.25000000  1.0
  Zr4+  Zr82  1  0.00000000  0.50000000  0.00000000  1.0
  Zr4+  Zr83  1  0.00000000  0.50000000  0.50000000  1.0
  Zr4+  Zr84  1  0.75000000  0.25000000  0.25000000  1.0
  Zr4+  Zr85  1  0.25000000  0.25000000  0.75000000  1.0
  Zr4+  Zr86  1  0.25000000  0.75000000  0.25000000  1.0
  Zr4+  Zr87  1  0.75000000  0.75000000  0.75000000  1.0
  Zr4+  Zr88  1  0.00000000  0.00000000  0.50000000  1.0
  Zr4+  Zr89  1  0.00000000  0.00000000  0.00000000  1.0
  Zr4+  Zr90  1  0.75000000  0.25000000  0.75000000  1.0
  Zr4+  Zr91  1  0.25000000  0.25000000  0.25000000  1.0
  Zr4+  Zr92  1  0.50000000  0.00000000  0.50000000  1.0
  Zr4+  Zr93  1  0.50000000  0.00000000  0.00000000  1.0
  Zr4+  Zr94  1  0.50000000  0.50000000  0.00000000  1.0
  Zr4+  Zr95  1  0.50000000  0.50000000  0.50000000  1.0
  O2-  O96  1  0.30470000  0.71560000  0.59720000  1.0
  O2-  O97  1  0.69530000  0.71560000  0.09720000  1.0
  O2-  O98  1  0.96560000  0.55470000  0.84720000  1.0
  O2-  O99  1  0.03440000  0.55470000  0.34720000  1.0
  O2-  O100  1  0.69530000  0.28440000  0.40280000  1.0
  O2-  O101  1  0.30470000  0.28440000  0.90280000  1.0
  O2-  O102  1  0.03440000  0.44530000  0.15280000  1.0
  O2-  O103  1  0.96560000  0.44530000  0.65280000  1.0
  O2-  O104  1  0.30470000  0.78440000  0.09720000  1.0
  O2-  O105  1  0.69530000  0.78440000  0.59720000  1.0
  O2-  O106  1  0.96560000  0.94530000  0.34720000  1.0
  O2-  O107  1  0.03440000  0.94530000  0.84720000  1.0
  O2-  O108  1  0.69530000  0.21560000  0.90280000  1.0
  O2-  O109  1  0.30470000  0.21560000  0.40280000  1.0
  O2-  O110  1  0.03440000  0.05470000  0.65280000  1.0
  O2-  O111  1  0.96560000  0.05470000  0.15280000  1.0
  O2-  O112  1  0.80470000  0.21560000  0.09720000  1.0
  O2-  O113  1  0.19530000  0.21560000  0.59720000  1.0
  O2-  O114  1  0.46560000  0.05470000  0.34720000  1.0
  O2-  O115  1  0.53440000  0.05470000  0.84720000  1.0
  O2-  O116  1  0.19530000  0.78440000  0.90280000  1.0
  O2-  O117  1  0.80470000  0.78440000  0.40280000  1.0
  O2-  O118  1  0.53440000  0.94530000  0.65280000  1.0
  O2-  O119  1  0.46560000  0.94530000  0.15280000  1.0
  O2-  O120  1  0.80470000  0.28440000  0.59720000  1.0
  O2-  O121  1  0.19530000  0.28440000  0.09720000  1.0
  O2-  O122  1  0.46560000  0.44530000  0.84720000  1.0
  O2-  O123  1  0.53440000  0.44530000  0.34720000  1.0
  O2-  O124  1  0.19530000  0.71560000  0.40280000  1.0
  O2-  O125  1  0.80470000  0.71560000  0.90280000  1.0
  O2-  O126  1  0.53440000  0.55470000  0.15280000  1.0
  O2-  O127  1  0.46560000  0.55470000  0.65280000  1.0
  O2-  O128  1  0.10310000  0.80380000  0.21600000  1.0
  O2-  O129  1  0.89690000  0.80380000  0.71600000  1.0
  O2-  O130  1  0.05380000  0.35310000  0.46600000  1.0
  O2-  O131  1  0.94620000  0.35310000  0.96600000  1.0
  O2-  O132  1  0.89690000  0.19620000  0.78400000  1.0
  O2-  O133  1  0.10310000  0.19620000  0.28400000  1.0
  O2-  O134  1  0.94620000  0.64690000  0.53400000  1.0
  O2-  O135  1  0.05380000  0.64690000  0.03400000  1.0
  O2-  O136  1  0.10310000  0.69620000  0.71600000  1.0
  O2-  O137  1  0.89690000  0.69620000  0.21600000  1.0
  O2-  O138  1  0.05380000  0.14690000  0.96600000  1.0
  O2-  O139  1  0.94620000  0.14690000  0.46600000  1.0
  O2-  O140  1  0.89690000  0.30380000  0.28400000  1.0
  O2-  O141  1  0.10310000  0.30380000  0.78400000  1.0
  O2-  O142  1  0.94620000  0.85310000  0.03400000  1.0
  O2-  O143  1  0.05380000  0.85310000  0.53400000  1.0
  O2-  O144  1  0.60310000  0.30380000  0.71600000  1.0
  O2-  O145  1  0.39690000  0.30380000  0.21600000  1.0
  O2-  O146  1  0.55380000  0.85310000  0.96600000  1.0
  O2-  O147  1  0.44620000  0.85310000  0.46600000  1.0
  O2-  O148  1  0.39690000  0.69620000  0.28400000  1.0
  O2-  O149  1  0.60310000  0.69620000  0.78400000  1.0
  O2-  O150  1  0.44620000  0.14690000  0.03400000  1.0
  O2-  O151  1  0.55380000  0.14690000  0.53400000  1.0
  O2-  O152  1  0.60310000  0.19620000  0.21600000  1.0
  O2-  O153  1  0.39690000  0.19620000  0.71600000  1.0
  O2-  O154  1  0.55380000  0.64690000  0.46600000  1.0
  O2-  O155  1  0.44620000  0.64690000  0.96600000  1.0
  O2-  O156  1  0.39690000  0.80380000  0.78400000  1.0
  O2-  O157  1  0.60310000  0.80380000  0.28400000  1.0
  O2-  O158  1  0.44620000  0.35310000  0.53400000  1.0
  O2-  O159  1  0.55380000  0.35310000  0.03400000  1.0
  O2-  O160  1  0.27780000  0.89990000  0.30330000  1.0
  O2-  O161  1  0.72220000  0.89990000  0.80330000  1.0
  O2-  O162  1  0.14990000  0.52780000  0.55330000  1.0
  O2-  O163  1  0.85010000  0.52780000  0.05330000  1.0
  O2-  O164  1  0.72220000  0.10010000  0.69670000  1.0
  O2-  O165  1  0.27780000  0.10010000  0.19670000  1.0
  O2-  O166  1  0.85010000  0.47220000  0.44670000  1.0
  O2-  O167  1  0.14990000  0.47220000  0.94670000  1.0
  O2-  O168  1  0.27780000  0.60010000  0.80330000  1.0
  O2-  O169  1  0.72220000  0.60010000  0.30330000  1.0
  O2-  O170  1  0.14990000  0.97220000  0.05330000  1.0
  O2-  O171  1  0.85010000  0.97220000  0.55330000  1.0
  O2-  O172  1  0.72220000  0.39990000  0.19670000  1.0
  O2-  O173  1  0.27780000  0.39990000  0.69670000  1.0
  O2-  O174  1  0.85010000  0.02780000  0.94670000  1.0
  O2-  O175  1  0.14990000  0.02780000  0.44670000  1.0
  O2-  O176  1  0.77780000  0.39990000  0.80330000  1.0
  O2-  O177  1  0.22220000  0.39990000  0.30330000  1.0
  O2-  O178  1  0.64990000  0.02780000  0.05330000  1.0
  O2-  O179  1  0.35010000  0.02780000  0.55330000  1.0
  O2-  O180  1  0.22220000  0.60010000  0.19670000  1.0
  O2-  O181  1  0.77780000  0.60010000  0.69670000  1.0
  O2-  O182  1  0.35010000  0.97220000  0.94670000  1.0
  O2-  O183  1  0.64990000  0.97220000  0.44670000  1.0
  O2-  O184  1  0.77780000  0.10010000  0.30330000  1.0
  O2-  O185  1  0.22220000  0.10010000  0.80330000  1.0
  O2-  O186  1  0.64990000  0.47220000  0.55330000  1.0
  O2-  O187  1  0.35010000  0.47220000  0.05330000  1.0
  O2-  O188  1  0.22220000  0.89990000  0.69670000  1.0
  O2-  O189  1  0.77780000  0.89990000  0.19670000  1.0
  O2-  O190  1  0.35010000  0.52780000  0.44670000  1.0
  O2-  O191  1  0.64990000  0.52780000  0.94670000  1.0
