# generated using pymatgen
data_LiLaO2
_symmetry_space_group_name_H-M   'P 1'
_cell_length_a   5.87400000
_cell_length_b   6.21290000
_cell_length_c   5.84810000
_cell_angle_alpha   90.00000000
_cell_angle_beta   102.45300000
_cell_angle_gamma   90.00000000
_symmetry_Int_Tables_number   1
_chemical_formula_structural   LiLaO2
_chemical_formula_sum   'Li4 La4 O8'
_cell_volume   208.40274515
_cell_formula_units_Z   4
loop_
 _symmetry_equiv_pos_site_id
 _symmetry_equiv_pos_as_xyz
  1  'x, y, z'
loop_
 _atom_type_symbol
 _atom_type_oxidation_number
  Li+  1.0
  La3+  3.0
  O2-  -2.0
loop_
 _atom_site_type_symbol
 _atom_site_label
 _atom_site_symmetry_multiplicity
 _atom_site_fract_x
 _atom_site_fract_y
 _atom_site_fract_z
 _atom_site_occupancy
  Li+  Li0  1  0.64000000  0.37380000  0.67558000  1.0
  Li+  Li1  1  0.36000000  0.87380000  0.82442000  1.0
  Li+  Li2  1  0.36000000  0.62620000  0.32442000  1.0
  Li+  Li3  1  0.64000000  0.12620000  0.17558000  1.0
  La3+  La4  1  0.20050000  0.43290000  0.80480000  1.0
  La3+  La5  1  0.79950000  0.93290000  0.69520000  1.0
  La3+  La6  1  0.79950000  0.56710000  0.19520000  1.0
  La3+  La7  1  0.20050000  0.06710000  0.30480000  1.0
  O2-  O8  1  0.91650000  0.23810000  0.98817000  1.0
  O2-  O9  1  0.08350000  0.73810000  0.51183000  1.0
  O2-  O10  1  0.08350000  0.76190000  0.01183000  1.0
  O2-  O11  1  0.91650000  0.26190000  0.48817000  1.0
  O2-  O12  1  0.42740000  0.37420000  0.21280000  1.0
  O2-  O13  1  0.57260000  0.87420000  0.28720000  1.0
  O2-  O14  1  0.57260000  0.62580000  0.78720000  1.0
  O2-  O15  1  0.42740000  0.12580000  0.71280000  1.0
