# generated using pymatgen
data_LiO2
_symmetry_space_group_name_H-M   'P 1'
_cell_length_a   3.99200000
_cell_length_b   4.87700000
_cell_length_c   2.96100000
_cell_angle_alpha   90.00000000
_cell_angle_beta   90.00000000
_cell_angle_gamma   90.00000000
_symmetry_Int_Tables_number   1
_chemical_formula_structural   LiO2
_chemical_formula_sum   'Li2 O4'
_cell_volume   57.64766162
_cell_formula_units_Z   2
loop_
 _symmetry_equiv_pos_site_id
 _symmetry_equiv_pos_as_xyz
  1  'x, y, z'
loop_
 _atom_type_symbol
 _atom_type_oxidation_number
  Li+  1.0
  O0.5-  -0.5
loop_
 _atom_site_type_symbol
 _atom_site_label
 _atom_site_symmetry_multiplicity
 _atom_site_fract_x
 _atom_site_fract_y
 _atom_site_fract_z
 _atom_site_occupancy
  Li+  Li0  1  0.50000000  0.50000000  0.50000000  1.0
  Li+  Li1  1  0.00000000  0.00000000  0.00000000  1.0
  O0.5-  O2  1  0.63300000  0.08440000  0.50000000  1.0
  O0.5-  O3  1  0.36700000  0.91560000  0.50000000  1.0
  O0.5-  O4  1  0.13300000  0.41560000  0.00000000  1.0
  O0.5-  O5  1  0.86700000  0.58440000  0.00000000  1.0
