# generated using pymatgen
data_Zr3O
_symmetry_space_group_name_H-M   'P 1'
_cell_length_a   5.62950000
_cell_length_b   5.62950000
_cell_length_c   5.19750000
_cell_angle_alpha   90.00000000
_cell_angle_beta   90.00000000
_cell_angle_gamma   120.00000000
_symmetry_Int_Tables_number   1
_chemical_formula_structural   Zr3O
_chemical_formula_sum   'Zr6 O2'
_cell_volume   142.64770098
_cell_formula_units_Z   2
loop_
 _symmetry_equiv_pos_site_id
 _symmetry_equiv_pos_as_xyz
  1  'x, y, z'
loop_
 _atom_type_symbol
 _atom_type_oxidation_number
  Zr0.67+  0.67
  O2-  -2.0
loop_
 _atom_site_type_symbol
 _atom_site_label
 _atom_site_symmetry_multiplicity
 _atom_site_fract_x
 _atom_site_fract_y
 _atom_site_fract_z
 _atom_site_occupancy
  Zr0.67+  Zr0  1  0.33300000  0.33300000  0.50000000  1.0
  Zr0.67+  Zr1  1  0.66700000  0.00000000  0.50000000  1.0
  Zr0.67+  Zr2  1  0.00000000  0.66700000  0.50000000  1.0
  Zr0.67+  Zr3  1  0.66700000  0.66700000  0.00000000  1.0
  Zr0.67+  Zr4  1  0.33300000  0.00000000  0.00000000  1.0
  Zr0.67+  Zr5  1  0.00000000  0.33300000  0.00000000  1.0
  O2-  O6  1  0.33333333  0.66666667  0.25000000  1.0
  O2-  O7  1  0.66666667  0.33333333  0.75000000  1.0
