# generated using pymatgen
data_ZrO2
_symmetry_space_group_name_H-M   'P 1'
_cell_length_a   9.91500000
_cell_length_b   5.15600000
_cell_length_c   5.06700000
_cell_angle_alpha   90.00000000
_cell_angle_beta   90.00000000
_cell_angle_gamma   90.00000000
_symmetry_Int_Tables_number   1
_chemical_formula_structural   ZrO2
_chemical_formula_sum   'Zr8 O16'
_cell_volume   259.03385658
_cell_formula_units_Z   8
loop_
 _symmetry_equiv_pos_site_id
 _symmetry_equiv_pos_as_xyz
  1  'x, y, z'
loop_
 _atom_type_symbol
 _atom_type_oxidation_number
  Zr4+  4.0
  O2-  -2.0
loop_
 _atom_site_type_symbol
 _atom_site_label
 _atom_site_symmetry_multiplicity
 _atom_site_fract_x
 _atom_site_fract_y
 _atom_site_fract_z
 _atom_site_occupancy
  Zr4+  Zr0  1  0.38000000  0.00200000  0.24400000  1.0
  Zr4+  Zr1  1  0.88000000  0.49800000  0.75600000  1.0
  Zr4+  Zr2  1  0.62000000  0.50200000  0.25600000  1.0
  Zr4+  Zr3  1  0.12000000  0.99800000  0.74400000  1.0
  Zr4+  Zr4  1  0.62000000  0.99800000  0.75600000  1.0
  Zr4+  Zr5  1  0.12000000  0.50200000  0.24400000  1.0
  Zr4+  Zr6  1  0.38000000  0.49800000  0.74400000  1.0
  Zr4+  Zr7  1  0.88000000  0.00200000  0.25600000  1.0
  O2-  O8  1  0.47800000  0.74500000  0.99100000  1.0
  O2-  O9  1  0.97800000  0.75500000  0.00900000  1.0
  O2-  O10  1  0.52200000  0.24500000  0.50900000  1.0
  O2-  O11  1  0.02200000  0.25500000  0.49100000  1.0
  O2-  O12  1  0.52200000  0.25500000  0.00900000  1.0
  O2-  O13  1  0.02200000  0.24500000  0.99100000  1.0
  O2-  O14  1  0.47800000  0.75500000  0.49100000  1.0
  O2-  O15  1  0.97800000  0.74500000  0.50900000  1.0
  O2-  O16  1  0.28400000  0.37100000  0.37000000  1.0
  O2-  O17  1  0.78400000  0.12900000  0.63000000  1.0
  O2-  O18  1  0.71600000  0.87100000  0.13000000  1.0
  O2-  O19  1  0.21600000  0.62900000  0.87000000  1.0
  O2-  O20  1  0.71600000  0.62900000  0.63000000  1.0
  O2-  O21  1  0.21600000  0.87100000  0.37000000  1.0
  O2-  O22  1  0.28400000  0.12900000  0.87000000  1.0
  O2-  O23  1  0.78400000  0.37100000  0.13000000  1.0
