# generated using pymatgen
data_ZrO2
_symmetry_space_group_name_H-M   'P 1'
_cell_length_a   7.28817600
_cell_length_b   7.28817600
_cell_length_c   5.30142600
_cell_angle_alpha   90.00000000
_cell_angle_beta   90.00000000
_cell_angle_gamma   89.99999200
_symmetry_Int_Tables_number   1
_chemical_formula_structural   ZrO2
_chemical_formula_sum   'Zr8 O16'
_cell_volume   281.59854543
_cell_formula_units_Z   8
loop_
 _symmetry_equiv_pos_site_id
 _symmetry_equiv_pos_as_xyz
  1  'x, y, z'
loop_
 _atom_type_symbol
 _atom_type_oxidation_number
  Zr4+  4.0
  O2-  -2.0
loop_
 _atom_site_type_symbol
 _atom_site_label
 _atom_site_symmetry_multiplicity
 _atom_site_fract_x
 _atom_site_fract_y
 _atom_site_fract_z
 _atom_site_occupancy
  Zr4+  Zr0  1  0.00000000  0.00000000  0.00000000  1.0
  Zr4+  Zr1  1  0.25000000  0.25000000  0.50000000  1.0
  Zr4+  Zr2  1  0.00000000  0.50000000  0.00000000  1.0
  Zr4+  Zr3  1  0.25000000  0.75000000  0.50000000  1.0
  Zr4+  Zr4  1  0.50000000  0.00000000  0.00000000  1.0
  Zr4+  Zr5  1  0.75000000  0.25000000  0.50000000  1.0
  Zr4+  Zr6  1  0.50000000  0.50000000  0.00000000  1.0
  Zr4+  Zr7  1  0.75000000  0.75000000  0.50000000  1.0
  O2-  O8  1  0.25000000  0.00000000  0.19507700  1.0
  O2-  O9  1  0.00000000  0.25000000  0.30492300  1.0
  O2-  O10  1  0.00000000  0.25000000  0.80492300  1.0
  O2-  O11  1  0.25000000  0.00000000  0.69507700  1.0
  O2-  O12  1  0.25000000  0.50000000  0.19507700  1.0
  O2-  O13  1  0.00000000  0.75000000  0.30492300  1.0
  O2-  O14  1  0.00000000  0.75000000  0.80492300  1.0
  O2-  O15  1  0.25000000  0.50000000  0.69507700  1.0
  O2-  O16  1  0.75000000  0.00000000  0.19507700  1.0
  O2-  O17  1  0.50000000  0.25000000  0.30492300  1.0
  O2-  O18  1  0.50000000  0.25000000  0.80492300  1.0
  O2-  O19  1  0.75000000  0.00000000  0.69507700  1.0
  O2-  O20  1  0.75000000  0.50000000  0.19507700  1.0
  O2-  O21  1  0.50000000  0.75000000  0.30492300  1.0
  O2-  O22  1  0.50000000  0.75000000  0.80492300  1.0
  O2-  O23  1  0.75000000  0.50000000  0.69507700  1.0
