# generated using pymatgen
data_ZrO2
_symmetry_space_group_name_H-M   'P 1'
_cell_length_a   3.48500000
_cell_length_b   3.86100000
_cell_length_c   10.57700000
_cell_angle_alpha   90.00000000
_cell_angle_beta   90.00000000
_cell_angle_gamma   90.00000000
_symmetry_Int_Tables_number   1
_chemical_formula_structural   ZrO2
_chemical_formula_sum   'Zr4 O8'
_cell_volume   142.31972255
_cell_formula_units_Z   4
loop_
 _symmetry_equiv_pos_site_id
 _symmetry_equiv_pos_as_xyz
  1  'x, y, z'
loop_
 _atom_type_symbol
 _atom_type_oxidation_number
  Zr0+  0.0
  O0+  0.0
loop_
 _atom_site_type_symbol
 _atom_site_label
 _atom_site_symmetry_multiplicity
 _atom_site_fract_x
 _atom_site_fract_y
 _atom_site_fract_z
 _atom_site_occupancy
  Zr0+  Zr0  1  0.24880000  0.83120000  0.63460000  1.0
  Zr0+  Zr1  1  0.25120000  0.16880000  0.13460000  1.0
  Zr0+  Zr2  1  0.74880000  0.66880000  0.36540000  1.0
  Zr0+  Zr3  1  0.75120000  0.33120000  0.86540000  1.0
  O0+  O4  1  0.74880000  0.96110000  0.53870000  1.0
  O0+  O5  1  0.75120000  0.03890000  0.03870000  1.0
  O0+  O6  1  0.24880000  0.53890000  0.46130000  1.0
  O0+  O7  1  0.25120000  0.46110000  0.96130000  1.0
  O0+  O8  1  0.74950000  0.15910000  0.28150000  1.0
  O0+  O9  1  0.75050000  0.84090000  0.78150000  1.0
  O0+  O10  1  0.24950000  0.34090000  0.71850000  1.0
  O0+  O11  1  0.25050000  0.65910000  0.21850000  1.0
