# generated using pymatgen
data_ZrO2
_symmetry_space_group_name_H-M   'P 1'
_cell_length_a   5.15140000
_cell_length_b   5.20980000
_cell_length_c   5.32040000
_cell_angle_alpha   90.00000000
_cell_angle_beta   99.17100000
_cell_angle_gamma   90.00000000
_symmetry_Int_Tables_number   1
_chemical_formula_structural   ZrO2
_chemical_formula_sum   'Zr4 O8'
_cell_volume   140.96239254
_cell_formula_units_Z   4
loop_
 _symmetry_equiv_pos_site_id
 _symmetry_equiv_pos_as_xyz
  1  'x, y, z'
loop_
 _atom_type_symbol
 _atom_type_oxidation_number
  Zr4+  4.0
  O2-  -2.0
loop_
 _atom_site_type_symbol
 _atom_site_label
 _atom_site_symmetry_multiplicity
 _atom_site_fract_x
 _atom_site_fract_y
 _atom_site_fract_z
 _atom_site_occupancy
  Zr4+  Zr0  1  0.27560000  0.46120000  0.70920000  1.0
  Zr4+  Zr1  1  0.72440000  0.96120000  0.79080000  1.0
  Zr4+  Zr2  1  0.72440000  0.53880000  0.29080000  1.0
  Zr4+  Zr3  1  0.27560000  0.03880000  0.20920000  1.0
  O2-  O4  1  0.06800000  0.17300000  0.83900000  1.0
  O2-  O5  1  0.93200000  0.67300000  0.66100000  1.0
  O2-  O6  1  0.93200000  0.82700000  0.16100000  1.0
  O2-  O7  1  0.06800000  0.32700000  0.33900000  1.0
  O2-  O8  1  0.44800000  0.73900000  0.97900000  1.0
  O2-  O9  1  0.55200000  0.23900000  0.52100000  1.0
  O2-  O10  1  0.55200000  0.26100000  0.02100000  1.0
  O2-  O11  1  0.44800000  0.76100000  0.47900000  1.0
