# generated using pymatgen
data_ZrO
_symmetry_space_group_name_H-M   'P 1'
_cell_length_a   4.60200000
_cell_length_b   4.60200000
_cell_length_c   4.60200000
_cell_angle_alpha   90.00000000
_cell_angle_beta   90.00000000
_cell_angle_gamma   90.00000000
_symmetry_Int_Tables_number   1
_chemical_formula_structural   ZrO
_chemical_formula_sum   'Zr4 O4'
_cell_volume   97.46301521
_cell_formula_units_Z   4
loop_
 _symmetry_equiv_pos_site_id
 _symmetry_equiv_pos_as_xyz
  1  'x, y, z'
loop_
 _atom_type_symbol
 _atom_type_oxidation_number
  Zr2+  2.0
  O2-  -2.0
loop_
 _atom_site_type_symbol
 _atom_site_label
 _atom_site_symmetry_multiplicity
 _atom_site_fract_x
 _atom_site_fract_y
 _atom_site_fract_z
 _atom_site_occupancy
  Zr2+  Zr0  1  0.00000000  0.00000000  0.00000000  1.0
  Zr2+  Zr1  1  0.00000000  0.50000000  0.50000000  1.0
  Zr2+  Zr2  1  0.50000000  0.00000000  0.50000000  1.0
  Zr2+  Zr3  1  0.50000000  0.50000000  0.00000000  1.0
  O2-  O4  1  0.50000000  0.50000000  0.50000000  1.0
  O2-  O5  1  0.50000000  0.00000000  0.00000000  1.0
  O2-  O6  1  0.00000000  0.50000000  0.00000000  1.0
  O2-  O7  1  0.00000000  0.00000000  0.50000000  1.0
